tools/golden/report_decks/dump3.dss
// PHASE8_PLAN WP8.5 Dump step 3 fixture: one micro deck containing every
// class whose DumpProperties override is still unported EXCEPT Capacitor
// (Fault, Vsource, UPFC, RegControl, Monitor, EnergyMeter, Spectrum) plus
// the loads the `dump alloc` file needs (xfkva- and kwh-spec). The
// gen_reports.py DUMP3 group replays this deck and captures one golden per
// dump form (single-object [debug], bare dump, dump debug, solution,
// buslist, devicelist, commands, alloc).
// Capacitor AND Reactor are deliberately ABSENT - two probe-proven
// (2026-07-05, two-process diff) upstream garbage reads in DumpProperties
// would poison the bare-dump byte goldens:
//   - Capacitor: CMatrix/FaultRate/pctPerm print ASLR-dependent
//     uninitialized-memory denormals (~1e-305) ALWAYS;
//   - Reactor: FaultRate/pctPerm print the same garbage whenever an
//     ENERGYMETER exists in the circuit (fine without one - which is why
//     the meterless WP8.5-step-1 dump_reactor goldens are byte-exact).
// Line/Transformer/Fault/loads stay deterministic even with the meter.
// Capacitor dump coverage lives in the dedicated dump_capacitor.dss
// fixture with those three lines masked.
clear
Set DefaultBaseFrequency=60

new circuit.dmp3 basekv=12.47 pu=1.0 phases=3 bus1=src
~ r1=0.4 x1=1.6 r0=1.2 x0=4.2

new linecode.lc nphases=3 r1=0.301 x1=0.667 r0=0.882 x0=2.041 c1=3.4 c0=1.6
~ units=km

new line.l1 bus1=src bus2=b1 linecode=lc length=1.0 units=km

new transformer.tr1 phases=3 windings=2 buses=(b1, blv) conns=(delta, wye)
~ kvs=(12.47, 0.48) kvas=(500, 500) xhl=5 %rs=(0.6, 0.6)
new regcontrol.rc1 transformer=tr1 winding=2 vreg=115 band=3 ptratio=2.4

new fault.f1 bus1=b1.1 bus2=b1.0 phases=1 r=20 ontime=0.2 temporary=yes
~ minamps=3
new fault.fg bus1=b1 phases=3
~ gmatrix=[0.05 -0.01 -0.01 | -0.01 0.05 -0.01 | -0.01 -0.01 0.05]

new spectrum.sp5 numharm=3 harmonic=[1 5 7] %mag=[100 20 12] angle=[0 30 60]

new load.ldk bus1=blv phases=3 conn=wye model=1 kv=0.48 kw=150 pf=0.92
~ spectrum=sp5
new load.ldx bus1=b1.1 phases=1 conn=wye kv=7.2 xfkva=300 allocationfactor=0.55
new load.ldc bus1=b1.2 phases=1 conn=wye kv=7.2 kwh=12000 cfactor=3.5

new monitor.mon1 element=line.l1 terminal=1 mode=0
new energymeter.em1 element=line.l1 terminal=1

// UPFC island (the proven corpus UPFC_test_3 pattern, 1-phase).
new xycurve.losses npts=3 xarray=[0.9 1 1.1] yarray=[1.0143 1.008 1.0143]
new transformer.tup phases=1 windings=2 buses=(b1.1, ui.1) kvs=(7.2, 0.24)
~ kvas=(50, 50) xhl=2 ppm=0
new upfc.u1 phases=1 bus1=ui.1 bus2=uo.1 refkv=0.242 mode=1 losscurve=losses
~ tol1=0.001 xs=0.02
new upfccontrol.uc1
new load.ldu phases=1 bus1=uo.1 kv=0.24 kw=10 pf=0.95

set voltagebases=[12.47 0.48 0.24]
calcvoltagebases
Set maxiterations=100
Set maxcontroliter=100
solve
